Version 4
SHEET 1 880 680
WIRE -48 0 -144 0
WIRE 48 0 -48 0
WIRE 208 0 48 0
WIRE 48 32 48 0
WIRE 208 32 208 0
WIRE -144 128 -144 0
WIRE 48 128 48 112
WIRE 208 144 208 112
WIRE -144 240 -144 208
WIRE 48 240 48 208
WIRE 48 240 -144 240
WIRE 208 240 208 208
WIRE 208 240 48 240
WIRE -144 256 -144 240
FLAG -144 256 0
FLAG -48 0 IN
SYMBOL voltage -144 112 R0
WINDOW 123 41 58 Left 2
WINDOW 39 0 0 Left 2
SYMATTR Value2 AC 1
SYMATTR InstName V1
SYMATTR Value ""
SYMBOL res 32 112 R0
SYMATTR InstName R1
SYMATTR Value {rL}
SYMBOL cap 192 144 R0
SYMATTR InstName C1
SYMATTR Value {C}
SYMBOL res 224 128 R180
WINDOW 0 36 76 Left 2
WINDOW 3 36 40 Left 2
SYMATTR InstName R2
SYMATTR Value {rC}
SYMBOL ind 32 16 R0
SYMATTR InstName L1
SYMATTR Value {L}
SYMATTR SpiceLine Rser=0
TEXT -160 312 Left 2 !.ac oct 50 1k 30meg
TEXT -168 352 Left 2 !.param L=1m rL=1m\n.param C=1m rC=1m
